*Heading
** Job name: Wang_Stiffened_Shell-Combined Model name: Wang_Stiffened_Shell-Non-Uniform-Pressure_and_compression
** Generated by: Abaqus/CAE 2019
*Preprint, echo=NO, model=NO, history=NO, contact=NO
**
** PARTS
**
*Part, name=Part-3
*Node
      1,    137.81868,   480.630859,         500.
      2,   134.772888,   470.008911,         500.
      3,   198.873886,    446.67804,         500.
      4,   203.368317,   456.772736,         500.
      5,   259.104034,   414.653107,         500.
      6,   264.959625,   424.024048,         500.
      7,   69.5865479,   495.134033,         500.
      8,   68.0486908,   484.191559,         500.
      9,   314.291016,   374.557434,         500.
     10,   321.393799,   383.022217,         500.
     11,           0.,         500.,         500.
     12,           0.,   488.950012,         500.
     13,   363.360657,   327.171417,         500.
     14,   371.572418,   334.565308,         500.
     15,  -69.5865479,   495.134033,         500.
     16,  -68.0486908,   484.191559,         500.
     17,    405.35791,   273.417358,         500.
     18,   414.518799,   279.596466,         500.
     19,   -137.81868,   480.630859,         500.
     20,  -134.772888,   470.008911,         500.
** ... 1420 like lines cut
*Element, type=S4R
1,   1,   2, 737, 738
2, 738, 737,   3,   4
3,   5,   6, 739, 740
4, 740, 739,   4,   3
5,   7,   8, 741, 742
6, 742, 741,   2,   1
7,   9,  10, 743, 744
8, 744, 743,   6,   5
 9,  11,  12, 745, 746
10, 746, 745,   8,   7
11,  13,  14, 747, 748
12, 748, 747,  10,   9
13,  15,  16, 749, 750
14, 750, 749,  12,  11
15,  17,  18, 751, 752
16, 752, 751,  14,  13
17,  19,  20, 753, 754
18, 754, 753,  16,  15
19,  21,  22, 755, 756
20, 756, 755,  18,  17
** ... 1645 like lines cut
*Nset, nset=Set-Cone
    1,    4,    6,    7,   10,   11,   14,   15,   18,   19,   22,   23,   26,   27,   30,   31
   34,   35,   38,   40,   43,   44,   47,   48,   51,   52,   55,   56,   59,   60,   62,   64
   65,   68,   69,   72,   73,   76,   77,   80,   81,   84,   85,   88,   89,   92,   93,   96
   98,   99,  102,  103,  106,  107,  110,  111,  114,  115,  118,  119,  122,  123,  126,  127
  130,  131,  134,  135,  137,  140,  141,  144,  145,  148,  149,  152,  153,  156,  157,  160
  161,  164,  165,  168,  169,  172,  173,  176,  177,  180,  181,  184,  185,  186,  187,  188
  189,  190,  191,  192,  193,  194,  195,  196,  197,  198,  199,  200,  201,  202,  203,  204
  205,  206,  207,  208,  210,  213,  214,  217,  220,  223,  226,  229,  232,  235,  238,  241
  245,  248,  251,  254,  257,  260,  263,  266,  269,  272,  277,  278,  279,  280,  281,  282
  283,  284,  285,  286,  287,  288,  289,  290,  291,  292,  293,  294,  295,  296,  297,  298
  299,  300,  302,  305,  306,  309,  312,  315,  318,  321,  324,  327,  330,  333,  336,  340
  343,  346,  349,  352,  355,  358,  361,  364,  369,  370,  371,  372,  373,  374,  375,  376
  377,  378,  379,  380,  381,  382,  383,  384,  385,  386,  387,  388,  389,  390,  391,  392
  394,  397,  398,  401,  404,  407,  410,  413,  416,  419,  422,  425,  428,  431,  435,  438
  441,  444,  447,  450,  453,  456,  461,  462,  463,  464,  465,  466,  467,  468,  469,  470
  471,  472,  473,  474,  475,  476,  477,  478,  479,  480,  481,  482,  483,  484,  488,  491
  494,  497,  500,  503,  506,  509,  512,  515,  518,  522,  525,  528,  531,  534,  537,  540
  543,  546,  549,  552,  553,  554,  555,  556,  557,  558,  559,  560,  561,  562,  563,  564
  565,  566,  567,  568,  569,  570,  571,  572,  573,  574,  575,  576,  578,  581,  582,  585
  588,  591,  594,  597,  600,  603,  606,  609,  612,  615,  619,  622,  625,  628,  631,  634
** ... 25 like lines cut
*Elset, elset=Set-Cone
  184,  185,  186,  187,  189,  190,  192,  193,  195,  196,  198,  199,  201,  202,  203,  204
  207,  208,  209,  210,  213,  214,  215,  216,  219,  220,  221,  222,  225,  226,  227,  228
  231,  232,  233,  234,  237,  238,  239,  240,  243,  244,  245,  246,  249,  250,  251,  252
  255,  256,  257,  258,  260,  261,  264,  265,  266,  267,  270,  271,  272,  273,  276,  277
  278,  279,  282,  283,  284,  285,  288,  289,  290,  291,  294,  295,  296,  297,  299,  300
  302,  303,  306,  307,  308,  309,  311,  312,  313,  314,  409,  410,  411,  412,  413,  414
  417,  418,  419,  420,  422,  423,  425,  426,  428,  429,  431,  432,  434,  435,  437,  438
  440,  441,  443,  444,  446,  447,  449,  450,  452,  453,  455,  456,  458,  459,  461,  462
  464,  465,  467,  468,  470,  471,  473,  474,  476,  477,  478,  479,  482,  483,  485,  486
  488,  489,  491,  492,  494,  495,  497,  498,  500,  501,  503,  504,  506,  507,  509,  510
  512,  513,  515,  516,  518,  519,  521,  522,  524,  525,  527,  528,  531,  532,  533,  534
  536,  537,  538,  539,  634,  635,  636,  637,  639,  640,  641,  642,  645,  646,  647,  648
  651,  652,  653,  654,  657,  658,  659,  660,  663,  664,  665,  666,  669,  670,  671,  672
  675,  676,  677,  678,  681,  682,  683,  684,  687,  688,  689,  690,  693,  694,  695,  696
  698,  699,  702,  703,  704,  705,  708,  709,  710,  711,  714,  715,  716,  717,  720,  721
  722,  723,  726,  727,  728,  729,  732,  733,  734,  735,  738,  739,  740,  741,  744,  745
  746,  747,  750,  751,  752,  753,  756,  757,  758,  759,  761,  762,  763,  764,  858,  859
  860,  861,  863,  864,  866,  867,  869,  870,  872,  873,  875,  876,  878,  879,  881,  882
  884,  885,  887,  888,  890,  891,  893,  894,  896,  897,  899,  900,  902,  903,  905,  906
  908,  909,  911,  912,  914,  915,  916,  917,  920,  921,  923,  924,  926,  927,  929,  930
** ... 20 like lines cut
*Nset, nset=Set-Top_EDGE
  645,  646,  647,  648,  649,  650,  651,  652,  653,  654,  655,  656,  657,  658,  659,  660
  661,  662,  663,  664,  665,  666,  667,  671,  674,  677,  680,  683,  686,  689,  692,  695
  698,  701,  703,  706,  709,  712,  715,  718,  721,  724,  727,  730,  733,  736, 1353, 1354
 1355, 1356, 1357, 1358, 1359, 1360, 1361, 1362, 1363, 1364, 1365, 1366, 1367, 1368, 1369, 1370
 1371, 1372, 1373, 1374, 1378, 1381, 1384, 1387, 1390, 1393, 1396, 1399, 1402, 1405, 1409, 1412
 1415, 1418, 1421, 1424, 1427, 1430, 1433, 1436, 1437, 1440
*Elset, elset=Set-Top_EDGE
 1308, 1309, 1316, 1317, 1322, 1323, 1328, 1329, 1334, 1335, 1340, 1341, 1346, 1347, 1352, 1353
 1358, 1359, 1364, 1365, 1373, 1374, 1379, 1380, 1385, 1386, 1391, 1392, 1397, 1398, 1403, 1404
 1409, 1410, 1415, 1416, 1421, 1422, 1427, 1428, 1433, 1434, 1438, 1439, 1441, 1442, 1443, 1444
 1445, 1446, 1447, 1448, 1449, 1450, 1451, 1452, 1453, 1454, 1455, 1456, 1457, 1458, 1459, 1460
 1461, 1462, 1463, 1464, 1465, 1466, 1467, 1468, 1469, 1470, 1471, 1472, 1473, 1474, 1475, 1476
 1477, 1478, 1479, 1480, 1481, 1482, 1483, 1484, 1485, 1486, 1487, 1488, 1489, 1490, 1491, 1492
 1493, 1494, 1495, 1496, 1497, 1498, 1499, 1500, 1501, 1502, 1503, 1504, 1505, 1506, 1507, 1508
 1509, 1510, 1511, 1512, 1513, 1514, 1515, 1516, 1517, 1518, 1519, 1520, 1521, 1522, 1523, 1524
 1525, 1526, 1527, 1528, 1529, 1530, 1595, 1596, 1598, 1599, 1601, 1602, 1604, 1605, 1607, 1608
 1610, 1611, 1613, 1614, 1616, 1617, 1619, 1620, 1622, 1623, 1625, 1626, 1628, 1629, 1631, 1632
 1634, 1635, 1637, 1638, 1640, 1641, 1643, 1644, 1646, 1647, 1649, 1650, 1652, 1653, 1655, 1656
 1658, 1659, 1661, 1662
*Nset, nset=Set-Bottom_EDGE
   1,   4,   6,   7,  10,  11,  14,  15,  18,  19,  22,  23,  26,  27,  30,  31
  34,  35,  38,  40,  43,  44,  47,  48,  51,  52,  55,  56,  59,  60,  62,  64
  65,  68,  69,  72,  73,  76,  77,  80,  81,  84,  85,  88,  89,  92, 738, 739
 742, 743, 746, 747, 750, 751, 754, 755, 758, 759, 762, 763, 766, 767, 770, 771
 773, 774, 777, 778, 781, 782, 785, 786, 789, 790, 793, 796, 797, 800, 801, 804
 805, 808, 809, 812, 813, 816, 817, 820, 821, 824
*Elset, elset=Set-Bottom_EDGE
    1,    2,    3,    4,    5,    6,    7,    8,    9,   10,   11,   12,   13,   14,   15,   16
   17,   18,   19,   20,   21,   22,   23,   24,   25,   26,   27,   28,   29,   30,   31,   32
   33,   34,   35,   36,   37,   38,   39,   40,   41,   42,   43,   44,   45,   46,   47,   48
   49,   50,   51,   52,   53,   54,   55,   56,   57,   58,   59,   60,   61,   62,   63,   64
   65,   66,   67,   68,   69,   70,   71,   72,   73,   74,   75,   76,   77,   78,   79,   80
   81,   82,   83,   84,   85,   86,   87,   88,   89,   90,  186,  187,  189,  190,  195,  196
  201,  202,  207,  208,  213,  214,  219,  220,  225,  226,  231,  232,  237,  238,  243,  244
  249,  250,  255,  256,  260,  261,  264,  265,  270,  271,  276,  277,  282,  283,  288,  289
  294,  295,  299,  300,  306,  307,  311,  312,  411,  412,  636,  637,  858,  859, 1538, 1539
 1541, 1542, 1544, 1545, 1547, 1548, 1550, 1551, 1553, 1554, 1556, 1557, 1559, 1560, 1562, 1563
 1565, 1566, 1568, 1569, 1571, 1572, 1574, 1575, 1577, 1578, 1580, 1581, 1583, 1584, 1586, 1587
 1589, 1590, 1592, 1593
*Nset, nset=_PickedSet6_#2, internal
    1,    4,    6,    7,   10,   11,   14,   15,   18,   19,   22,   23,   26,   27,   30,   31
   34,   35,   38,   40,   43,   44,   47,   48,   51,   52,   55,   56,   59,   60,   62,   64
   65,   68,   69,   72,   73,   76,   77,   80,   81,   84,   85,   88,   89,   92,   93,   96
   98,   99,  102,  103,  106,  107,  110,  111,  114,  115,  118,  119,  122,  123,  126,  127
  130,  131,  134,  135,  137,  140,  141,  144,  145,  148,  149,  152,  153,  156,  157,  160
  161,  164,  165,  168,  169,  172,  173,  176,  177,  180,  181,  184,  185,  186,  187,  188
  189,  190,  191,  192,  193,  194,  195,  196,  197,  198,  199,  200,  201,  202,  203,  204
  205,  206,  207,  208,  210,  213,  214,  217,  220,  223,  226,  229,  232,  235,  238,  241
  245,  248,  251,  254,  257,  260,  263,  266,  269,  272,  277,  278,  279,  280,  281,  282
  283,  284,  285,  286,  287,  288,  289,  290,  291,  292,  293,  294,  295,  296,  297,  298
  299,  300,  302,  305,  306,  309,  312,  315,  318,  321,  324,  327,  330,  333,  336,  340
  343,  346,  349,  352,  355,  358,  361,  364,  369,  370,  371,  372,  373,  374,  375,  376
  377,  378,  379,  380,  381,  382,  383,  384,  385,  386,  387,  388,  389,  390,  391,  392
  394,  397,  398,  401,  404,  407,  410,  413,  416,  419,  422,  425,  428,  431,  435,  438
  441,  444,  447,  450,  453,  456,  461,  462,  463,  464,  465,  466,  467,  468,  469,  470
  471,  472,  473,  474,  475,  476,  477,  478,  479,  480,  481,  482,  483,  484,  488,  491
  494,  497,  500,  503,  506,  509,  512,  515,  518,  522,  525,  528,  531,  534,  537,  540
  543,  546,  549,  552,  553,  554,  555,  556,  557,  558,  559,  560,  561,  562,  563,  564
  565,  566,  567,  568,  569,  570,  571,  572,  573,  574,  575,  576,  578,  581,  582,  585
  588,  591,  594,  597,  600,  603,  606,  609,  612,  615,  619,  622,  625,  628,  631,  634
** ... 25 like lines cut
*Elset, elset=_PickedSet6_#2, internal
  184,  185,  186,  187,  189,  190,  192,  193,  195,  196,  198,  199,  201,  202,  203,  204
  207,  208,  209,  210,  213,  214,  215,  216,  219,  220,  221,  222,  225,  226,  227,  228
  231,  232,  233,  234,  237,  238,  239,  240,  243,  244,  245,  246,  249,  250,  251,  252
  255,  256,  257,  258,  260,  261,  264,  265,  266,  267,  270,  271,  272,  273,  276,  277
  278,  279,  282,  283,  284,  285,  288,  289,  290,  291,  294,  295,  296,  297,  299,  300
  302,  303,  306,  307,  308,  309,  311,  312,  313,  314,  409,  410,  411,  412,  413,  414
  417,  418,  419,  420,  422,  423,  425,  426,  428,  429,  431,  432,  434,  435,  437,  438
  440,  441,  443,  444,  446,  447,  449,  450,  452,  453,  455,  456,  458,  459,  461,  462
  464,  465,  467,  468,  470,  471,  473,  474,  476,  477,  478,  479,  482,  483,  485,  486
  488,  489,  491,  492,  494,  495,  497,  498,  500,  501,  503,  504,  506,  507,  509,  510
  512,  513,  515,  516,  518,  519,  521,  522,  524,  525,  527,  528,  531,  532,  533,  534
  536,  537,  538,  539,  634,  635,  636,  637,  639,  640,  641,  642,  645,  646,  647,  648
  651,  652,  653,  654,  657,  658,  659,  660,  663,  664,  665,  666,  669,  670,  671,  672
  675,  676,  677,  678,  681,  682,  683,  684,  687,  688,  689,  690,  693,  694,  695,  696
  698,  699,  702,  703,  704,  705,  708,  709,  710,  711,  714,  715,  716,  717,  720,  721
  722,  723,  726,  727,  728,  729,  732,  733,  734,  735,  738,  739,  740,  741,  744,  745
  746,  747,  750,  751,  752,  753,  756,  757,  758,  759,  761,  762,  763,  764,  858,  859
  860,  861,  863,  864,  866,  867,  869,  870,  872,  873,  875,  876,  878,  879,  881,  882
  884,  885,  887,  888,  890,  891,  893,  894,  896,  897,  899,  900,  902,  903,  905,  906
  908,  909,  911,  912,  914,  915,  916,  917,  920,  921,  923,  924,  926,  927,  929,  930
** ... 20 like lines cut
*Nset, nset=Part-2-AxialStiffener
   1,   2,   3,   4,   5,   6,   7,   8,   9,  10,  11,  12,  13,  14,  15,  16
  17,  18,  19,  20,  21,  22,  23,  24,  25,  26,  27,  28,  29,  30,  31,  32
  33,  34,  35,  36,  37,  38,  40,  41,  42,  43,  44,  45,  46,  47,  48,  49
  50,  51,  52,  53,  54,  55,  56,  57,  58,  59,  60,  61,  63,  64,  65,  66
  67,  68,  69,  70,  71,  72,  73,  74,  75,  76,  77,  78,  79,  80,  81,  82
  83,  84,  85,  86,  87,  88,  89,  90,  91,  92,  93,  94,  95,  96,  97,  98
  99, 100, 101, 102, 103, 104, 105, 106, 107, 108, 109, 110, 111, 112, 113, 114
 115, 116, 117, 118, 119, 120, 121, 122, 123, 124, 125, 126, 127, 128, 129, 130
 131, 132, 133, 134, 137, 138, 139, 140, 141, 142, 143, 144, 145, 146, 147, 148
 149, 150, 151, 152, 153, 154, 155, 156, 157, 158, 159, 160, 161, 162, 163, 164
 165, 166, 167, 168, 169, 170, 171, 172, 173, 174, 175, 176, 177, 178, 179, 180
 181, 182, 183, 184, 185, 186, 187, 188, 189, 190, 191, 192, 193, 194, 195, 196
 197, 199, 200, 201, 202, 203, 204, 205, 206, 207, 208, 209, 210, 211, 212, 213
 214, 215, 216, 217, 218, 219, 220, 221, 222, 223, 224, 225, 226, 227, 228, 229
 230, 231, 232, 233, 234, 235, 236, 237, 238, 239, 240, 241, 242, 243, 245, 246
 247, 248, 249, 250, 251, 252, 253, 254, 255, 256, 257, 258, 259, 260, 261, 262
 263, 264, 265, 266, 267, 268, 269, 270, 271, 272, 273, 274, 275, 276, 277, 278
 279, 280, 281, 282, 283, 284, 285, 286, 287, 288, 290, 291, 292, 293, 294, 295
 296, 297, 298, 299, 300, 301, 302, 303, 304, 305, 306, 307, 308, 309, 310, 311
 312, 313, 314, 315, 316, 317, 318, 319, 320, 321, 322, 323, 324, 325, 326, 327
** ... 25 like lines cut
*Elset, elset=Part-2-AxialStiffener
  181,  182,  183,  188,  191,  194,  197,  200,  205,  206,  211,  212,  217,  218,  223,  224
  229,  230,  235,  236,  241,  242,  247,  248,  253,  254,  259,  262,  263,  268,  269,  274
  275,  280,  281,  286,  287,  292,  293,  298,  301,  304,  305,  310,  315,  406,  407,  408
  415,  416,  421,  424,  427,  430,  433,  436,  439,  442,  445,  448,  451,  454,  457,  460
  463,  466,  469,  472,  475,  480,  481,  484,  487,  490,  493,  496,  499,  502,  505,  508
  511,  514,  517,  520,  523,  526,  529,  530,  535,  540,  631,  632,  633,  638,  643,  644
  649,  650,  655,  656,  661,  662,  667,  668,  673,  674,  679,  680,  685,  686,  691,  692
  697,  700,  701,  706,  707,  712,  713,  718,  719,  724,  725,  730,  731,  736,  737,  742
  743,  748,  749,  754,  755,  760,  765,  856,  857,  862,  865,  868,  871,  874,  877,  880
  883,  886,  889,  892,  895,  898,  901,  904,  907,  910,  913,  918,  919,  922,  925,  928
  931,  934,  937,  940,  943,  946,  949,  952,  955,  958,  961,  964,  967,  970,  973,  976
  979,  982,  983,  990, 1081, 1082, 1083, 1090, 1091, 1096, 1097, 1102, 1103, 1108, 1109, 1114
 1115, 1120, 1121, 1126, 1127, 1132, 1133, 1138, 1139, 1144, 1147, 1148, 1153, 1154, 1159, 1160
 1165, 1166, 1171, 1172, 1177, 1178, 1183, 1184, 1189, 1190, 1195, 1196, 1201, 1202, 1207, 1208
 1215, 1306, 1307, 1312, 1315, 1318, 1321, 1324, 1327, 1330, 1333, 1336, 1339, 1342, 1345, 1348
 1351, 1354, 1357, 1360, 1363, 1368, 1369, 1372, 1375, 1378, 1381, 1384, 1387, 1390, 1393, 1396
 1399, 1402, 1405, 1408, 1411, 1414, 1417, 1420, 1423, 1426, 1429, 1432, 1435, 1440, 1531, 1534
 1537, 1540, 1543, 1546, 1549, 1552, 1555, 1558, 1561, 1564, 1567, 1570, 1573, 1576, 1579, 1582
 1585, 1588, 1591, 1594, 1597, 1600, 1603, 1606, 1609, 1612, 1615, 1618, 1621, 1624, 1627, 1630
 1633, 1636, 1639, 1642, 1645, 1648, 1651, 1654, 1657, 1660, 1663
*Nset, nset=Part-R-0_RadialStiffener
  645,  646,  647,  648,  649,  650,  651,  652,  653,  654,  655,  656,  657,  658,  659,  660
  661,  662,  663,  664,  665,  666,  667,  668,  669,  670,  671,  672,  673,  674,  675,  676
  677,  678,  679,  680,  681,  682,  683,  684,  685,  686,  687,  688,  689,  690,  691,  692
  693,  694,  695,  696,  697,  698,  699,  700,  701,  702,  703,  704,  705,  706,  707,  708
  709,  710,  711,  712,  713,  714,  715,  716,  717,  718,  719,  720,  721,  722,  723,  724
  725,  726,  727,  728,  729,  730,  731,  732,  733,  734,  735,  736, 1353, 1354, 1355, 1356
 1357, 1358, 1359, 1360, 1361, 1362, 1363, 1364, 1365, 1366, 1367, 1368, 1369, 1370, 1371, 1372
 1373, 1374, 1375, 1376, 1377, 1378, 1379, 1380, 1381, 1382, 1383, 1384, 1385, 1386, 1387, 1388
 1389, 1390, 1391, 1392, 1393, 1394, 1395, 1396, 1397, 1398, 1399, 1400, 1401, 1402, 1403, 1404
 1405, 1406, 1407, 1408, 1409, 1410, 1411, 1412, 1413, 1414, 1415, 1416, 1417, 1418, 1419, 1420
 1421, 1422, 1423, 1424, 1425, 1426, 1427, 1428, 1429, 1430, 1431, 1432, 1433, 1434, 1435, 1436
 1437, 1438, 1439, 1440
*Elset, elset=Part-R-0_RadialStiffener, generate
 1441,  1530,     1
*Nset, nset=Part-R-1_RadialStiffener
  553,  554,  555,  556,  557,  558,  559,  560,  561,  562,  563,  564,  565,  566,  567,  568
  569,  570,  571,  572,  573,  574,  575,  576,  577,  578,  579,  580,  581,  582,  583,  584
  585,  586,  587,  588,  589,  590,  591,  592,  593,  594,  595,  596,  597,  598,  599,  600
  601,  602,  603,  604,  605,  606,  607,  608,  609,  610,  611,  612,  613,  614,  615,  616
  617,  618,  619,  620,  621,  622,  623,  624,  625,  626,  627,  628,  629,  630,  631,  632
  633,  634,  635,  636,  637,  638,  639,  640,  641,  642,  643,  644, 1265, 1266, 1267, 1268
 1269, 1270, 1271, 1272, 1273, 1274, 1275, 1276, 1277, 1278, 1279, 1280, 1281, 1282, 1283, 1284
 1285, 1286, 1287, 1288, 1289, 1290, 1291, 1292, 1293, 1294, 1295, 1296, 1297, 1298, 1299, 1300
 1301, 1302, 1303, 1304, 1305, 1306, 1307, 1308, 1309, 1310, 1311, 1312, 1313, 1314, 1315, 1316
 1317, 1318, 1319, 1320, 1321, 1322, 1323, 1324, 1325, 1326, 1327, 1328, 1329, 1330, 1331, 1332
 1333, 1334, 1335, 1336, 1337, 1338, 1339, 1340, 1341, 1342, 1343, 1344, 1345, 1346, 1347, 1348
 1349, 1350, 1351, 1352
*Elset, elset=Part-R-1_RadialStiffener, generate
 1216,  1305,     1
*Nset, nset=Part-R-2_RadialStiffener
  461,  462,  463,  464,  465,  466,  467,  468,  469,  470,  471,  472,  473,  474,  475,  476
  477,  478,  479,  480,  481,  482,  483,  484,  485,  486,  487,  488,  489,  490,  491,  492
  493,  494,  495,  496,  497,  498,  499,  500,  501,  502,  503,  504,  505,  506,  507,  508
  509,  510,  511,  512,  513,  514,  515,  516,  517,  518,  519,  520,  521,  522,  523,  524
  525,  526,  527,  528,  529,  530,  531,  532,  533,  534,  535,  536,  537,  538,  539,  540
  541,  542,  543,  544,  545,  546,  547,  548,  549,  550,  551,  552, 1177, 1178, 1179, 1180
 1181, 1182, 1183, 1184, 1185, 1186, 1187, 1188, 1189, 1190, 1191, 1192, 1193, 1194, 1195, 1196
 1197, 1198, 1199, 1200, 1201, 1202, 1203, 1204, 1205, 1206, 1207, 1208, 1209, 1210, 1211, 1212
 1213, 1214, 1215, 1216, 1217, 1218, 1219, 1220, 1221, 1222, 1223, 1224, 1225, 1226, 1227, 1228
 1229, 1230, 1231, 1232, 1233, 1234, 1235, 1236, 1237, 1238, 1239, 1240, 1241, 1242, 1243, 1244
 1245, 1246, 1247, 1248, 1249, 1250, 1251, 1252, 1253, 1254, 1255, 1256, 1257, 1258, 1259, 1260
 1261, 1262, 1263, 1264
*Elset, elset=Part-R-2_RadialStiffener, generate
  991,  1080,     1
*Nset, nset=Part-R-3_RadialStiffener
  369,  370,  371,  372,  373,  374,  375,  376,  377,  378,  379,  380,  381,  382,  383,  384
  385,  386,  387,  388,  389,  390,  391,  392,  393,  394,  395,  396,  397,  398,  399,  400
  401,  402,  403,  404,  405,  406,  407,  408,  409,  410,  411,  412,  413,  414,  415,  416
  417,  418,  419,  420,  421,  422,  423,  424,  425,  426,  427,  428,  429,  430,  431,  432
  433,  434,  435,  436,  437,  438,  439,  440,  441,  442,  443,  444,  445,  446,  447,  448
  449,  450,  451,  452,  453,  454,  455,  456,  457,  458,  459,  460, 1089, 1090, 1091, 1092
 1093, 1094, 1095, 1096, 1097, 1098, 1099, 1100, 1101, 1102, 1103, 1104, 1105, 1106, 1107, 1108
 1109, 1110, 1111, 1112, 1113, 1114, 1115, 1116, 1117, 1118, 1119, 1120, 1121, 1122, 1123, 1124
 1125, 1126, 1127, 1128, 1129, 1130, 1131, 1132, 1133, 1134, 1135, 1136, 1137, 1138, 1139, 1140
 1141, 1142, 1143, 1144, 1145, 1146, 1147, 1148, 1149, 1150, 1151, 1152, 1153, 1154, 1155, 1156
 1157, 1158, 1159, 1160, 1161, 1162, 1163, 1164, 1165, 1166, 1167, 1168, 1169, 1170, 1171, 1172
 1173, 1174, 1175, 1176
*Elset, elset=Part-R-3_RadialStiffener, generate
 766,  855,    1
*Nset, nset=Part-R-4_RadialStiffener
  277,  278,  279,  280,  281,  282,  283,  284,  285,  286,  287,  288,  289,  290,  291,  292
  293,  294,  295,  296,  297,  298,  299,  300,  301,  302,  303,  304,  305,  306,  307,  308
  309,  310,  311,  312,  313,  314,  315,  316,  317,  318,  319,  320,  321,  322,  323,  324
  325,  326,  327,  328,  329,  330,  331,  332,  333,  334,  335,  336,  337,  338,  339,  340
  341,  342,  343,  344,  345,  346,  347,  348,  349,  350,  351,  352,  353,  354,  355,  356
  357,  358,  359,  360,  361,  362,  363,  364,  365,  366,  367,  368, 1001, 1002, 1003, 1004
 1005, 1006, 1007, 1008, 1009, 1010, 1011, 1012, 1013, 1014, 1015, 1016, 1017, 1018, 1019, 1020
 1021, 1022, 1023, 1024, 1025, 1026, 1027, 1028, 1029, 1030, 1031, 1032, 1033, 1034, 1035, 1036
 1037, 1038, 1039, 1040, 1041, 1042, 1043, 1044, 1045, 1046, 1047, 1048, 1049, 1050, 1051, 1052
 1053, 1054, 1055, 1056, 1057, 1058, 1059, 1060, 1061, 1062, 1063, 1064, 1065, 1066, 1067, 1068
 1069, 1070, 1071, 1072, 1073, 1074, 1075, 1076, 1077, 1078, 1079, 1080, 1081, 1082, 1083, 1084
 1085, 1086, 1087, 1088
*Elset, elset=Part-R-4_RadialStiffener, generate
 541,  630,    1
*Nset, nset=Part-R-5_RadialStiffener
  185,  186,  187,  188,  189,  190,  191,  192,  193,  194,  195,  196,  197,  198,  199,  200
  201,  202,  203,  204,  205,  206,  207,  208,  209,  210,  211,  212,  213,  214,  215,  216
  217,  218,  219,  220,  221,  222,  223,  224,  225,  226,  227,  228,  229,  230,  231,  232
  233,  234,  235,  236,  237,  238,  239,  240,  241,  242,  243,  244,  245,  246,  247,  248
  249,  250,  251,  252,  253,  254,  255,  256,  257,  258,  259,  260,  261,  262,  263,  264
  265,  266,  267,  268,  269,  270,  271,  272,  273,  274,  275,  276,  913,  914,  915,  916
  917,  918,  919,  920,  921,  922,  923,  924,  925,  926,  927,  928,  929,  930,  931,  932
  933,  934,  935,  936,  937,  938,  939,  940,  941,  942,  943,  944,  945,  946,  947,  948
  949,  950,  951,  952,  953,  954,  955,  956,  957,  958,  959,  960,  961,  962,  963,  964
  965,  966,  967,  968,  969,  970,  971,  972,  973,  974,  975,  976,  977,  978,  979,  980
  981,  982,  983,  984,  985,  986,  987,  988,  989,  990,  991,  992,  993,  994,  995,  996
  997,  998,  999, 1000
*Elset, elset=Part-R-5_RadialStiffener, generate
 316,  405,    1
*Nset, nset=Part-R-6_RadialStiffener
  93,  94,  95,  96,  97,  98,  99, 100, 101, 102, 103, 104, 105, 106, 107, 108
 109, 110, 111, 112, 113, 114, 115, 116, 117, 118, 119, 120, 121, 122, 123, 124
 125, 126, 127, 128, 129, 130, 131, 132, 133, 134, 135, 136, 137, 138, 139, 140
 141, 142, 143, 144, 145, 146, 147, 148, 149, 150, 151, 152, 153, 154, 155, 156
 157, 158, 159, 160, 161, 162, 163, 164, 165, 166, 167, 168, 169, 170, 171, 172
 173, 174, 175, 176, 177, 178, 179, 180, 181, 182, 183, 184, 825, 826, 827, 828
 829, 830, 831, 832, 833, 834, 835, 836, 837, 838, 839, 840, 841, 842, 843, 844
 845, 846, 847, 848, 849, 850, 851, 852, 853, 854, 855, 856, 857, 858, 859, 860
 861, 862, 863, 864, 865, 866, 867, 868, 869, 870, 871, 872, 873, 874, 875, 876
 877, 878, 879, 880, 881, 882, 883, 884, 885, 886, 887, 888, 889, 890, 891, 892
 893, 894, 895, 896, 897, 898, 899, 900, 901, 902, 903, 904, 905, 906, 907, 908
 909, 910, 911, 912
*Elset, elset=Part-R-6_RadialStiffener, generate
  91,  180,    1
*Nset, nset=Part-R-7_RadialStiffener
   1,   2,   3,   4,   5,   6,   7,   8,   9,  10,  11,  12,  13,  14,  15,  16
  17,  18,  19,  20,  21,  22,  23,  24,  25,  26,  27,  28,  29,  30,  31,  32
  33,  34,  35,  36,  37,  38,  39,  40,  41,  42,  43,  44,  45,  46,  47,  48
  49,  50,  51,  52,  53,  54,  55,  56,  57,  58,  59,  60,  61,  62,  63,  64
  65,  66,  67,  68,  69,  70,  71,  72,  73,  74,  75,  76,  77,  78,  79,  80
  81,  82,  83,  84,  85,  86,  87,  88,  89,  90,  91,  92, 737, 738, 739, 740
 741, 742, 743, 744, 745, 746, 747, 748, 749, 750, 751, 752, 753, 754, 755, 756
 757, 758, 759, 760, 761, 762, 763, 764, 765, 766, 767, 768, 769, 770, 771, 772
 773, 774, 775, 776, 777, 778, 779, 780, 781, 782, 783, 784, 785, 786, 787, 788
 789, 790, 791, 792, 793, 794, 795, 796, 797, 798, 799, 800, 801, 802, 803, 804
 805, 806, 807, 808, 809, 810, 811, 812, 813, 814, 815, 816, 817, 818, 819, 820
 821, 822, 823, 824
*Elset, elset=Part-R-7_RadialStiffener, generate
  1,  90,   1
*Nset, nset=Set_all, generate
    1,  1440,     1
*Elset, elset=Set_all, generate
    1,  1665,     1
*Nset, nset=Set-Circum, generate
    1,  1440,     1
*Elset, elset=Set-Circum
    1,    2,    3,    4,    5,    6,    7,    8,    9,   10,   11,   12,   13,   14,   15,   16
   17,   18,   19,   20,   21,   22,   23,   24,   25,   26,   27,   28,   29,   30,   31,   32
   33,   34,   35,   36,   37,   38,   39,   40,   41,   42,   43,   44,   45,   46,   47,   48
   49,   50,   51,   52,   53,   54,   55,   56,   57,   58,   59,   60,   61,   62,   63,   64
   65,   66,   67,   68,   69,   70,   71,   72,   73,   74,   75,   76,   77,   78,   79,   80
   81,   82,   83,   84,   85,   86,   87,   88,   89,   90,   91,   92,   93,   94,   95,   96
   97,   98,   99,  100,  101,  102,  103,  104,  105,  106,  107,  108,  109,  110,  111,  112
  113,  114,  115,  116,  117,  118,  119,  120,  121,  122,  123,  124,  125,  126,  127,  128
  129,  130,  131,  132,  133,  134,  135,  136,  137,  138,  139,  140,  141,  142,  143,  144
  145,  146,  147,  148,  149,  150,  151,  152,  153,  154,  155,  156,  157,  158,  159,  160
  161,  162,  163,  164,  165,  166,  167,  168,  169,  170,  171,  172,  173,  174,  175,  176
  177,  178,  179,  180,  316,  317,  318,  319,  320,  321,  322,  323,  324,  325,  326,  327
  328,  329,  330,  331,  332,  333,  334,  335,  336,  337,  338,  339,  340,  341,  342,  343
  344,  345,  346,  347,  348,  349,  350,  351,  352,  353,  354,  355,  356,  357,  358,  359
  360,  361,  362,  363,  364,  365,  366,  367,  368,  369,  370,  371,  372,  373,  374,  375
  376,  377,  378,  379,  380,  381,  382,  383,  384,  385,  386,  387,  388,  389,  390,  391
  392,  393,  394,  395,  396,  397,  398,  399,  400,  401,  402,  403,  404,  405,  541,  542
  543,  544,  545,  546,  547,  548,  549,  550,  551,  552,  553,  554,  555,  556,  557,  558
  559,  560,  561,  562,  563,  564,  565,  566,  567,  568,  569,  570,  571,  572,  573,  574
  575,  576,  577,  578,  579,  580,  581,  582,  583,  584,  585,  586,  587,  588,  589,  590
** ... 25 like lines cut
*Nset, nset=Set-17
    1,    4,    6,    7,   10,   11,   14,   15,   18,   19,   22,   23,   26,   27,   30,   31
   34,   35,   38,   40,   43,   44,   47,   48,   51,   52,   55,   56,   59,   60,   62,   64
   65,   68,   69,   72,   73,   76,   77,   80,   81,   84,   85,   88,   89,   92,   93,   96
   98,   99,  102,  103,  106,  107,  110,  111,  114,  115,  118,  119,  122,  123,  126,  127
  130,  131,  134,  135,  137,  140,  141,  144,  145,  148,  149,  152,  153,  156,  157,  160
  161,  164,  165,  168,  169,  172,  173,  176,  177,  180,  181,  184,  185,  186,  187,  188
  189,  190,  191,  192,  193,  194,  195,  196,  197,  198,  199,  200,  201,  202,  203,  204
  205,  206,  207,  208,  210,  213,  214,  217,  220,  223,  226,  229,  232,  235,  238,  241
  245,  248,  251,  254,  257,  260,  263,  266,  269,  272,  277,  278,  279,  280,  281,  282
  283,  284,  285,  286,  287,  288,  289,  290,  291,  292,  293,  294,  295,  296,  297,  298
  299,  300,  302,  305,  306,  309,  312,  315,  318,  321,  324,  327,  330,  333,  336,  340
  343,  346,  349,  352,  355,  358,  361,  364,  369,  370,  371,  372,  373,  374,  375,  376
  377,  378,  379,  380,  381,  382,  383,  384,  385,  386,  387,  388,  389,  390,  391,  392
  394,  397,  398,  401,  404,  407,  410,  413,  416,  419,  422,  425,  428,  431,  435,  438
  441,  444,  447,  450,  453,  456,  461,  462,  463,  464,  465,  466,  467,  468,  469,  470
  471,  472,  473,  474,  475,  476,  477,  478,  479,  480,  481,  482,  483,  484,  488,  491
  494,  497,  500,  503,  506,  509,  512,  515,  518,  522,  525,  528,  531,  534,  537,  540
  543,  546,  549,  552,  553,  554,  555,  556,  557,  558,  559,  560,  561,  562,  563,  564
  565,  566,  567,  568,  569,  570,  571,  572,  573,  574,  575,  576,  578,  581,  582,  585
  588,  591,  594,  597,  600,  603,  606,  609,  612,  615,  619,  622,  625,  628,  631,  634
** ... 25 like lines cut
*Elset, elset=Set-17
  184,  185,  186,  187,  189,  190,  192,  193,  195,  196,  198,  199,  201,  202,  207,  208
  209,  210,  213,  214,  215,  216,  219,  220,  221,  222,  225,  226,  227,  228,  231,  232
  233,  234,  237,  238,  239,  240,  243,  244,  245,  246,  249,  250,  251,  252,  255,  256
  257,  258,  260,  261,  264,  265,  266,  267,  270,  271,  272,  273,  276,  277,  278,  279
  282,  283,  284,  285,  288,  289,  290,  291,  294,  295,  296,  297,  299,  300,  302,  303
  306,  307,  308,  309,  311,  312,  313,  314,  409,  410,  411,  412,  413,  414,  417,  418
  419,  420,  422,  423,  425,  426,  428,  429,  431,  432,  434,  435,  437,  438,  440,  441
  443,  444,  446,  447,  449,  450,  452,  453,  455,  456,  458,  459,  461,  462,  464,  465
  467,  468,  470,  471,  473,  474,  476,  477,  478,  479,  482,  483,  485,  486,  488,  489
  491,  492,  494,  495,  497,  498,  500,  501,  503,  504,  506,  507,  509,  510,  512,  513
  515,  516,  518,  519,  521,  522,  524,  525,  527,  528,  531,  532,  533,  534,  536,  537
  538,  539,  634,  635,  636,  637,  639,  640,  641,  642,  645,  646,  647,  648,  651,  652
  653,  654,  657,  658,  659,  660,  663,  664,  665,  666,  669,  670,  671,  672,  675,  676
  677,  678,  681,  682,  683,  684,  687,  688,  689,  690,  693,  694,  695,  696,  698,  699
  702,  703,  704,  705,  708,  709,  710,  711,  714,  715,  716,  717,  720,  721,  722,  723
  726,  727,  728,  729,  732,  733,  734,  735,  738,  739,  740,  741,  744,  745,  746,  747
  750,  751,  752,  753,  756,  757,  758,  759,  761,  762,  763,  764,  858,  859,  860,  861
  863,  864,  866,  867,  869,  870,  872,  873,  875,  876,  878,  879,  881,  882,  884,  885
  887,  888,  890,  891,  893,  894,  896,  897,  899,  900,  902,  903,  905,  906,  908,  909
  911,  912,  914,  915,  916,  917,  920,  921,  923,  924,  926,  927,  929,  930,  932,  933
** ... 20 like lines cut
*Nset, nset=Set-18
 168, 172, 188, 189, 897, 916
*Elset, elset=Set-18
 203, 204
*Nset, nset=Set-19
    1,    4,    6,    7,   10,   11,   14,   15,   18,   19,   22,   23,   26,   27,   30,   31
   34,   35,   38,   40,   43,   44,   47,   48,   51,   52,   55,   56,   59,   60,   62,   64
   65,   68,   69,   72,   73,   76,   77,   80,   81,   84,   85,   88,   89,   92,   93,   96
   98,   99,  102,  103,  106,  107,  110,  111,  114,  115,  118,  119,  122,  123,  126,  127
  130,  131,  134,  135,  137,  140,  141,  144,  145,  148,  149,  152,  153,  156,  157,  160
  161,  164,  165,  168,  169,  172,  173,  176,  177,  180,  181,  184,  185,  186,  187,  188
  189,  190,  191,  192,  193,  194,  195,  196,  197,  198,  199,  200,  201,  202,  203,  204
  205,  206,  207,  208,  210,  213,  214,  217,  220,  223,  226,  229,  232,  235,  238,  241
  245,  248,  251,  254,  257,  260,  263,  266,  269,  272,  277,  278,  279,  280,  281,  282
  283,  284,  285,  286,  287,  288,  289,  290,  291,  292,  293,  294,  295,  296,  297,  298
  299,  300,  302,  305,  306,  309,  312,  315,  318,  321,  324,  327,  330,  333,  336,  340
  343,  346,  349,  352,  355,  358,  361,  364,  369,  370,  371,  372,  373,  374,  375,  376
  377,  378,  379,  380,  381,  382,  383,  384,  385,  386,  387,  388,  389,  390,  391,  392
  394,  397,  398,  401,  404,  407,  410,  413,  416,  419,  422,  425,  428,  431,  435,  438
  441,  444,  447,  450,  453,  456,  461,  462,  463,  464,  465,  466,  467,  468,  469,  470
  471,  472,  473,  474,  475,  476,  477,  478,  479,  480,  481,  482,  483,  484,  488,  491
  494,  497,  500,  503,  506,  509,  512,  515,  518,  522,  525,  528,  531,  534,  537,  540
  543,  546,  549,  552,  553,  554,  555,  556,  557,  558,  559,  560,  561,  562,  563,  564
  565,  566,  567,  568,  569,  570,  571,  572,  573,  574,  575,  576,  578,  581,  582,  585
  588,  591,  594,  597,  600,  603,  606,  609,  612,  615,  619,  622,  625,  628,  631,  634
** ... 25 like lines cut
*Elset, elset=Set-19
  184,  185,  186,  187,  189,  190,  192,  193,  195,  196,  198,  199,  201,  202,  203,  204
  207,  208,  209,  210,  213,  214,  215,  216,  219,  220,  221,  222,  225,  226,  227,  228
  231,  232,  233,  234,  237,  238,  239,  240,  243,  244,  245,  246,  249,  250,  251,  252
  255,  256,  257,  258,  260,  261,  264,  265,  266,  267,  270,  271,  272,  273,  276,  277
  278,  279,  282,  283,  284,  285,  288,  289,  290,  291,  294,  295,  296,  297,  299,  300
  302,  303,  306,  307,  308,  309,  311,  312,  313,  314,  409,  410,  411,  412,  413,  414
  417,  418,  419,  420,  422,  423,  425,  426,  428,  429,  431,  432,  434,  435,  437,  438
  440,  441,  443,  444,  446,  447,  449,  450,  452,  453,  455,  456,  458,  459,  461,  462
  464,  465,  467,  468,  470,  471,  473,  474,  476,  477,  478,  479,  482,  483,  485,  486
  488,  489,  491,  492,  494,  495,  497,  498,  500,  501,  503,  504,  506,  507,  509,  510
  512,  513,  515,  516,  518,  519,  521,  522,  524,  525,  527,  528,  531,  532,  533,  534
  536,  537,  538,  539,  634,  635,  636,  637,  639,  640,  641,  642,  645,  646,  647,  648
  651,  652,  653,  654,  657,  658,  659,  660,  663,  664,  665,  666,  669,  670,  671,  672
  675,  676,  677,  678,  681,  682,  683,  684,  687,  688,  689,  690,  693,  694,  695,  696
  698,  699,  702,  703,  704,  705,  708,  709,  710,  711,  714,  715,  716,  717,  720,  721
  722,  723,  726,  727,  728,  729,  732,  733,  734,  735,  738,  739,  740,  741,  744,  745
  746,  747,  750,  751,  752,  753,  756,  757,  758,  759,  761,  762,  763,  764,  858,  859
  860,  861,  863,  864,  866,  867,  869,  870,  872,  873,  875,  876,  878,  879,  881,  882
  884,  885,  887,  888,  890,  891,  893,  894,  896,  897,  899,  900,  902,  903,  905,  906
  908,  909,  911,  912,  914,  915,  916,  917,  920,  921,  923,  924,  926,  927,  929,  930
** ... 20 like lines cut
*Nset, nset=Set-20
  187,  188,  189,  190,  277,  279,  280,  281,  369,  371,  915,  916,  917, 1002, 1003, 1004
 1090,
*Elset, elset=Set-20
 417, 418, 422, 423, 428, 429, 641, 642
*Nset, nset=Set-21
    1,    4,    6,    7,   10,   11,   14,   15,   18,   19,   22,   23,   26,   27,   30,   31
   34,   35,   38,   40,   43,   44,   47,   48,   51,   52,   55,   56,   59,   60,   62,   64
   65,   68,   69,   72,   73,   76,   77,   80,   81,   84,   85,   88,   89,   92,   93,   96
   98,   99,  102,  103,  106,  107,  110,  111,  114,  115,  118,  119,  122,  123,  126,  127
  130,  131,  134,  135,  137,  140,  141,  144,  145,  148,  149,  152,  153,  156,  157,  160
  161,  164,  165,  168,  169,  172,  173,  176,  177,  180,  181,  184,  185,  186,  187,  188
  189,  190,  191,  192,  193,  194,  195,  196,  197,  198,  199,  200,  201,  202,  203,  204
  205,  206,  207,  208,  210,  213,  214,  217,  220,  223,  226,  229,  232,  235,  238,  241
  245,  248,  251,  254,  257,  260,  263,  266,  269,  272,  277,  278,  279,  280,  281,  282
  283,  284,  285,  286,  287,  288,  289,  290,  291,  292,  293,  294,  295,  296,  297,  298
  299,  300,  302,  305,  306,  309,  312,  315,  318,  321,  324,  327,  330,  333,  336,  340
  343,  346,  349,  352,  355,  358,  361,  364,  369,  370,  371,  372,  373,  374,  375,  376
  377,  378,  379,  380,  381,  382,  383,  384,  385,  386,  387,  388,  389,  390,  391,  392
  394,  397,  398,  401,  404,  407,  410,  413,  416,  419,  422,  425,  428,  431,  435,  438
  441,  444,  447,  450,  453,  456,  461,  462,  463,  464,  465,  466,  467,  468,  469,  470
  471,  472,  473,  474,  475,  476,  477,  478,  479,  480,  481,  482,  483,  484,  488,  491
  494,  497,  500,  503,  506,  509,  512,  515,  518,  522,  525,  528,  531,  534,  537,  540
  543,  546,  549,  552,  553,  554,  555,  556,  557,  558,  559,  560,  561,  562,  563,  564
  565,  566,  567,  568,  569,  570,  571,  572,  573,  574,  575,  576,  578,  581,  582,  585
  588,  591,  594,  597,  600,  603,  606,  609,  612,  615,  619,  622,  625,  628,  631,  634
** ... 25 like lines cut
*Elset, elset=Set-21
  184,  185,  186,  187,  189,  190,  192,  193,  195,  196,  198,  199,  201,  202,  203,  204
  207,  208,  209,  210,  213,  214,  215,  216,  219,  220,  221,  222,  225,  226,  227,  228
  231,  232,  233,  234,  237,  238,  239,  240,  243,  244,  245,  246,  249,  250,  251,  252
  255,  256,  257,  258,  260,  261,  264,  265,  266,  267,  270,  271,  272,  273,  276,  277
  278,  279,  282,  283,  284,  285,  288,  289,  290,  291,  294,  295,  296,  297,  299,  300
  302,  303,  306,  307,  308,  309,  311,  312,  313,  314,  409,  410,  411,  412,  413,  414
  419,  420,  425,  426,  431,  432,  434,  435,  437,  438,  440,  441,  443,  444,  446,  447
  449,  450,  452,  453,  455,  456,  458,  459,  461,  462,  464,  465,  467,  468,  470,  471
  473,  474,  476,  477,  478,  479,  482,  483,  485,  486,  488,  489,  491,  492,  494,  495
  497,  498,  500,  501,  503,  504,  506,  507,  509,  510,  512,  513,  515,  516,  518,  519
  521,  522,  524,  525,  527,  528,  531,  532,  533,  534,  536,  537,  538,  539,  634,  635
  636,  637,  639,  640,  645,  646,  647,  648,  651,  652,  653,  654,  657,  658,  659,  660
  663,  664,  665,  666,  669,  670,  671,  672,  675,  676,  677,  678,  681,  682,  683,  684
  687,  688,  689,  690,  693,  694,  695,  696,  698,  699,  702,  703,  704,  705,  708,  709
  710,  711,  714,  715,  716,  717,  720,  721,  722,  723,  726,  727,  728,  729,  732,  733
  734,  735,  738,  739,  740,  741,  744,  745,  746,  747,  750,  751,  752,  753,  756,  757
  758,  759,  761,  762,  763,  764,  858,  859,  860,  861,  863,  864,  866,  867,  869,  870
  872,  873,  875,  876,  878,  879,  881,  882,  884,  885,  887,  888,  890,  891,  893,  894
  896,  897,  899,  900,  902,  903,  905,  906,  908,  909,  911,  912,  914,  915,  916,  917
  920,  921,  923,  924,  926,  927,  929,  930,  932,  933,  935,  936,  938,  939,  941,  942
** ... 19 like lines cut
** Section: Section-Stiffener
*Shell Section, elset=Set-Circum, material=Alu, controls=EC-1
3., 5
** Section: Section-Stiffener
*Shell Section, elset=Part-2-AxialStiffener, material=Alu, controls=EC-1
3., 5
** Section: Section-Skin
*Shell Section, elset=Set-Cone, material=Alu, controls=EC-1
2.1, 5
*End Part
**  
**
** ASSEMBLY
**
*Assembly, name=Assembly
**  
*Instance, name=Part-3-1, part=Part-3
*End Instance
**  
*Node
      1,           0.,           0.,           0.
*Node
      2,           0.,           0.,         500.
*Nset, nset=RP-1
 1,
*Nset, nset=RP-2
 2,
*Nset, nset=Set-8, instance=Part-3-1
 656,
*Nset, nset=Set-9
 1,
*Nset, nset=Set-10, instance=Part-3-1
 172,
*Nset, nset=_PickedSet121, internal
 1,
*Nset, nset=_PickedSet123, internal
 2,
*Nset, nset=_PickedSet125, internal
 1,
*Nset, nset=_PickedSet127, internal
 2,
*Elset, elset=_Surf-1_SNEG, internal, instance=Part-3-1
  184,  185,  186,  187,  189,  190,  192,  193,  195,  196,  198,  199,  201,  202,  203,  204
  207,  208,  209,  210,  213,  214,  215,  216,  219,  220,  221,  222,  225,  226,  227,  228
  231,  232,  233,  234,  237,  238,  239,  240,  243,  244,  245,  246,  249,  250,  251,  252
  255,  256,  257,  258,  260,  261,  264,  265,  266,  267,  270,  271,  272,  273,  276,  277
  278,  279,  282,  283,  284,  285,  288,  289,  290,  291,  294,  295,  296,  297,  299,  300
  302,  303,  306,  307,  308,  309,  311,  312,  313,  314,  409,  410,  411,  412,  413,  414
  417,  418,  419,  420,  422,  423,  425,  426,  428,  429,  431,  432,  434,  435,  437,  438
  440,  441,  443,  444,  446,  447,  449,  450,  452,  453,  455,  456,  458,  459,  461,  462
  464,  465,  467,  468,  470,  471,  473,  474,  476,  477,  478,  479,  482,  483,  485,  486
  488,  489,  491,  492,  494,  495,  497,  498,  500,  501,  503,  504,  506,  507,  509,  510
  512,  513,  515,  516,  518,  519,  521,  522,  524,  525,  527,  528,  531,  532,  533,  534
  536,  537,  538,  539,  634,  635,  636,  637,  639,  640,  641,  642,  645,  646,  647,  648
  651,  652,  653,  654,  657,  658,  659,  660,  663,  664,  665,  666,  669,  670,  671,  672
  675,  676,  677,  678,  681,  682,  683,  684,  687,  688,  689,  690,  693,  694,  695,  696
  698,  699,  702,  703,  704,  705,  708,  709,  710,  711,  714,  715,  716,  717,  720,  721
  722,  723,  726,  727,  728,  729,  732,  733,  734,  735,  738,  739,  740,  741,  744,  745
  746,  747,  750,  751,  752,  753,  756,  757,  758,  759,  761,  762,  763,  764,  858,  859
  860,  861,  863,  864,  866,  867,  869,  870,  872,  873,  875,  876,  878,  879,  881,  882
  884,  885,  887,  888,  890,  891,  893,  894,  896,  897,  899,  900,  902,  903,  905,  906
  908,  909,  911,  912,  914,  915,  916,  917,  920,  921,  923,  924,  926,  927,  929,  930
** ... 20 like lines cut
*Surface, type=ELEMENT, name=Surf-1
_Surf-1_SNEG, SNEG
*Elset, elset=_Surf-2_SNEG, internal, instance=Part-3-1
  198,  199,  203,  204,  209,  210,  417,  418,  422,  423,  428,  429,  634,  635,  641,  642
  647,  648,  858,  859,  860,  861,  866,  867, 1084, 1085, 1088, 1089, 1094, 1095, 1308, 1309
 1310, 1311, 1316, 1317, 1589, 1590, 1592, 1593, 1595, 1596
*Surface, type=ELEMENT, name=Surf-2
_Surf-2_SNEG, SNEG
*Elset, elset=_Surf-3_SNEG, internal, instance=Part-3-1
  184,  185,  186,  187,  192,  193,  215,  216,  221,  222,  227,  228,  409,  410,  411,  412
  413,  414,  434,  435,  440,  441,  446,  447,  636,  637,  639,  640,  645,  646,  653,  654
  659,  660,  665,  666,  863,  864,  869,  870,  872,  873,  875,  876,  878,  879,  884,  885
 1086, 1087, 1092, 1093, 1098, 1099, 1100, 1101, 1106, 1107, 1112, 1113, 1313, 1314, 1319, 1320
 1322, 1323, 1325, 1326, 1328, 1329, 1334, 1335, 1580, 1581, 1583, 1584, 1586, 1587, 1598, 1599
 1601, 1602, 1604, 1605
*Surface, type=ELEMENT, name=Surf-3
_Surf-3_SNEG, SNEG
*Elset, elset=_Surf-4_SNEG, internal, instance=Part-3-1
  189,  190,  195,  196,  201,  202,  233,  234,  239,  240,  245,  246,  419,  420,  425,  426
  431,  432,  452,  453,  458,  459,  464,  465,  651,  652,  657,  658,  663,  664,  671,  672
  677,  678,  683,  684,  881,  882,  887,  888,  890,  891,  893,  894,  896,  897,  902,  903
 1104, 1105, 1110, 1111, 1116, 1117, 1118, 1119, 1124, 1125, 1130, 1131, 1331, 1332, 1337, 1338
 1340, 1341, 1343, 1344, 1346, 1347, 1352, 1353, 1571, 1572, 1574, 1575, 1577, 1578, 1607, 1608
 1610, 1611, 1613, 1614
*Surface, type=ELEMENT, name=Surf-4
_Surf-4_SNEG, SNEG
*Elset, elset=_Surf-5_SNEG, internal, instance=Part-3-1
  207,  208,  213,  214,  219,  220,  251,  252,  257,  258,  266,  267,  437,  438,  443,  444
  449,  450,  470,  471,  476,  477,  485,  486,  669,  670,  675,  676,  681,  682,  689,  690
  695,  696,  704,  705,  899,  900,  905,  906,  908,  909,  911,  912,  914,  915,  923,  924
 1122, 1123, 1128, 1129, 1134, 1135, 1136, 1137, 1142, 1143, 1151, 1152, 1349, 1350, 1355, 1356
 1358, 1359, 1361, 1362, 1364, 1365, 1373, 1374, 1562, 1563, 1565, 1566, 1568, 1569, 1616, 1617
 1619, 1620, 1622, 1623
*Surface, type=ELEMENT, name=Surf-5
_Surf-5_SNEG, SNEG
*Elset, elset=_Surf-6_SNEG, internal, instance=Part-3-1
  225,  226,  231,  232,  237,  238,  243,  244,  249,  250,  255,  256,  260,  261,  264,  265
  270,  271,  272,  273,  276,  277,  278,  279,  282,  283,  284,  285,  288,  289,  290,  291
  294,  295,  296,  297,  299,  300,  302,  303,  306,  307,  308,  309,  311,  312,  313,  314
  455,  456,  461,  462,  467,  468,  473,  474,  478,  479,  482,  483,  488,  489,  491,  492
  494,  495,  497,  498,  500,  501,  503,  504,  506,  507,  509,  510,  512,  513,  515,  516
  518,  519,  521,  522,  524,  525,  527,  528,  531,  532,  533,  534,  536,  537,  538,  539
  687,  688,  693,  694,  698,  699,  702,  703,  708,  709,  710,  711,  714,  715,  716,  717
  720,  721,  722,  723,  726,  727,  728,  729,  732,  733,  734,  735,  738,  739,  740,  741
  744,  745,  746,  747,  750,  751,  752,  753,  756,  757,  758,  759,  761,  762,  763,  764
  916,  917,  920,  921,  926,  927,  929,  930,  932,  933,  935,  936,  938,  939,  941,  942
  944,  945,  947,  948,  950,  951,  953,  954,  956,  957,  959,  960,  962,  963,  965,  966
  968,  969,  971,  972,  974,  975,  977,  978,  980,  981,  984,  985,  986,  987,  988,  989
 1140, 1141, 1145, 1146, 1149, 1150, 1155, 1156, 1157, 1158, 1161, 1162, 1163, 1164, 1167, 1168
 1169, 1170, 1173, 1174, 1175, 1176, 1179, 1180, 1181, 1182, 1185, 1186, 1187, 1188, 1191, 1192
 1193, 1194, 1197, 1198, 1199, 1200, 1203, 1204, 1205, 1206, 1209, 1210, 1211, 1212, 1213, 1214
 1366, 1367, 1370, 1371, 1376, 1377, 1379, 1380, 1382, 1383, 1385, 1386, 1388, 1389, 1391, 1392
 1394, 1395, 1397, 1398, 1400, 1401, 1403, 1404, 1406, 1407, 1409, 1410, 1412, 1413, 1415, 1416
 1418, 1419, 1421, 1422, 1424, 1425, 1427, 1428, 1430, 1431, 1433, 1434, 1436, 1437, 1438, 1439
 1532, 1533, 1535, 1536, 1538, 1539, 1541, 1542, 1544, 1545, 1547, 1548, 1550, 1551, 1553, 1554
 1556, 1557, 1559, 1560, 1625, 1626, 1628, 1629, 1631, 1632, 1634, 1635, 1637, 1638, 1640, 1641
 1643, 1644, 1646, 1647, 1649, 1650, 1652, 1653, 1655, 1656, 1658, 1659, 1661, 1662, 1664, 1665
*Surface, type=ELEMENT, name=Surf-6
_Surf-6_SNEG, SNEG
** Constraint: Constraint-1
*Rigid Body, ref node=RP-1, tie nset=Part-3-1.Part-R-0_RadialStiffener
** Constraint: Constraint-2
*Rigid Body, ref node=RP-2, tie nset=Part-3-1.Part-R-7_RadialStiffener
*End Assembly
** 
** ELEMENT CONTROLS
** 
*Section Controls, name=EC-1, ELEMENT DELETION=YES
1., 1., 1.
*Amplitude, name=Amp-1
             0.,              1.,              1.,              1.
*Amplitude, name=Amp-2
           0.01,            0.01,            0.02,            0.02,            0.03,            0.03,            0.04,            0.04
           0.05,            0.05,            0.06,            0.06,            0.07,            0.07,            0.08,            0.08
           0.09,            0.09,             0.1,             0.1,            0.11,            0.11,            0.12,            0.12
           0.13,            0.13,            0.14,            0.14,            0.15,            0.15,            0.16,            0.16
           0.17,            0.17,            0.18,            0.18,            0.19,            0.19,             0.2,             0.2
           0.21,            0.21,            0.22,            0.22,            0.23,            0.23,            0.24,            0.24
           0.25,            0.25,            0.26,            0.26,            0.27,            0.27,            0.28,            0.28
           0.29,            0.29,             0.3,             0.3,            0.31,            0.31,            0.32,            0.32
           0.33,            0.33,            0.34,            0.34,            0.35,            0.35,            0.36,            0.36
           0.37,            0.37,            0.38,            0.38,            0.39,            0.39,             0.4,             0.4
           0.41,            0.41,            0.42,            0.42,            0.43,            0.43,            0.44,            0.44
           0.45,            0.45,            0.46,            0.46,            0.47,            0.47,            0.48,            0.48
           0.49,            0.49,             0.5,             0.5,            0.51,            0.51,            0.52,            0.52
           0.53,            0.53,            0.54,            0.54,            0.55,            0.55,            0.56,            0.56
           0.57,            0.57,            0.58,            0.58,            0.59,            0.59,             0.6,             0.6
           0.61,            0.61,            0.62,            0.62,            0.63,            0.63,            0.64,            0.64
           0.65,            0.65,            0.66,            0.66,            0.67,            0.67,            0.68,            0.68
           0.69,            0.69,             0.7,             0.7,            0.71,            0.71,            0.72,            0.72
           0.73,            0.73,            0.74,            0.74,            0.75,            0.75,            0.76,            0.76
           0.77,            0.77,            0.78,            0.78,            0.79,            0.79,             0.8,             0.8
** ... 5 like lines cut
** 
** MATERIALS
** 
*Material, name=Alu
*Damage Initiation, criterion=DUCTILE
 0.15965,0.,0.
*Damage Evolution, type=ENERGY, degradation=MULTIPLICATIVE
 2530.6,
*Density
 7.8e-09,
*Elastic
155281., 0.3
*Plastic
 405.298,        0.
 419.766, 0.0117267
 432.167, 0.0142969
 444.568,  0.016117
 454.902, 0.0187005
 465.236, 0.0205239
 477.637,  0.023094
 490.038, 0.0252842
 500.372, 0.0278676
 510.706, 0.0308311
  521.04, 0.0334145
 529.307, 0.0360113
 539.641, 0.0393447
 547.908, 0.0419415
 556.176, 0.0456783
 564.443,  0.048655
 570.643, 0.0516351
 580.977, 0.0549785
 587.178, 0.0587286
 593.378, 0.0624687
** ... 52 like lines cut
** 
** BOUNDARY CONDITIONS
** 
** Name: BC Bottom Type: Displacement/Rotation
*Boundary
_PickedSet127, 1, 1
_PickedSet127, 2, 2
_PickedSet127, 3, 3
_PickedSet127, 4, 4
_PickedSet127, 5, 5
_PickedSet127, 6, 6
** Name: BC Top Type: Displacement/Rotation
*Boundary
_PickedSet125, 1, 1
_PickedSet125, 2, 2
_PickedSet125, 4, 4
_PickedSet125, 5, 5
_PickedSet125, 6, 6
** ----------------------------------------------------------------
** 
** STEP: Step-1
** 
*Step, name=Step-1, nlgeom=YES
*Dynamic, Explicit
, 1.
*Bulk Viscosity
0.06, 1.2
** 
** LOADS
** 
** Name: Load-2   Type: Concentrated force
*Cload, amplitude=Amp-1
Set-9, 3, 1340.
** Name: Load-3   Type: Pressure
*Dsload, amplitude=Amp-2
Surf-2, P, 10.
** Name: Load-4   Type: Pressure
*Dsload, amplitude=Amp-2
Surf-3, P, 8.
** Name: Load-5   Type: Pressure
*Dsload, amplitude=Amp-2
Surf-4, P, 6.
** Name: Load-6   Type: Pressure
*Dsload, amplitude=Amp-2
Surf-5, P, 4.5
** Name: Load-7   Type: Pressure
*Dsload, amplitude=Amp-2
Surf-6, P, 3.25
** 
** OUTPUT REQUESTS
** 
*Restart, write, number interval=1, time marks=NO
** 
** FIELD OUTPUT: F-Output-1
** 
*Output, field, time interval=0.01
*Node Output
CF, RF, U
*Element Output, directions=YES
LE, P, PE, PEEQ, PEMAG, S, STATUS
*Contact Output
CDISP, CSTRESS
** 
** HISTORY OUTPUT: H-Output-1
** 
*Output, history, variable=PRESELECT, frequency=1
*End Step
